Circuit: * F:\6 - Gitreppos\Glitchifier9000\Simulations\Frontend.asc

Limiting rise time of source v1 to 2e-008
Limiting fall time of source v1 to 2e-008
Direct Newton iteration for .op point succeeded.

Date: Sat Feb 11 16:33:30 2023
Total elapsed time: 0.025 seconds.

tnom = 27
temp = 27
method = modified trap
totiter = 2400
traniter = 2385
tranpoints = 1146
accept = 1117
rejected = 29
matrix size = 19
fillins = 8
solver = Normal
Matrix Compiler1: 1.24 KB object code size  0.2/0.1/[0.1]
Matrix Compiler2: off  [0.1]/0.2/0.1

